57
 energy: -79.959851655064 gnorm: 0.000173943527 xtb: 6.6.1 (8d0f1dd)
C           -1.82539991808860        4.16336458024393        0.45809201605226
C           -1.80871347526427        3.10181351168366       -0.32566012954910
C           -2.74828950656121        1.94034056486660       -0.19649846296003
N           -2.09270909067086        0.69926552224928        0.17900938310630
C           -1.29440810960594        0.76108384578667        1.40214280531429
C           -1.58435780363098       -0.45215342108844        2.28448830879426
C            0.22432286274641        0.93104525219676        1.16574743966487
P            1.16062060564540       -0.65690297848404        0.83177012581775
C            2.58723832635325       -0.43274028592738        1.95429788301734
C            2.36525288573247       -0.17934674661310        3.30569684814418
C            3.42266736076806       -0.09921494342560        4.19154514224958
C            4.71937348661146       -0.29170313550118        3.74328247629110
C            4.94775840225561       -0.58054385979042        2.40812816476272
C            3.88987383394369       -0.66193440292165        1.52134311307413
C            1.93000302891809       -0.29276098777072       -0.79228533810605
C            2.62543191510546        0.86671575435290       -1.10600869575196
C            3.10386402692479        1.05288292544850       -2.39150931802521
C            2.89149319512060        0.08993763444164       -3.36450823395474
C            2.20573602766483       -1.07486786689254       -3.05706162333019
C            1.73051491953135       -1.26160078772311       -1.77372016787994
Ni          -0.40998440429515       -1.88824735539497       -0.21861094414968
S           -1.37551652239446       -0.19302291618806       -1.09083020853183
O           -1.27277706620235        0.69042897382848       -2.24318426069949
C           -2.75553871547319       -1.38365218469683       -1.54328142854252
C           -3.96605960654544       -0.69667383246594       -2.13619456504968
C           -2.03085060218394       -2.26590307822078       -2.55582538649407
C           -3.05730713771351       -2.19199978357978       -0.29222805114195
H           -2.55058286224822        4.27255538654691        1.24966045242093
H           -1.13068487371127        4.97719943473429        0.33622639329080
H           -1.08404646148659        2.99896463333381       -1.12178973491193
H           -3.53172615299686        2.15710990330150        0.54008093997908
H           -3.20957569919888        1.76205971776311       -1.16870960785504
H           -1.63364808400131        1.65826168257199        1.93583318298136
H           -2.64892117008771       -0.52617122611833        2.48986294283157
H           -1.24619922681954       -1.37510651340047        1.78333802793817
H           -1.05002793881800       -0.36034320026593        3.22721454619096
H            0.66176984757767        1.41719309753535        2.03992596990803
H            0.37029132786182        1.58584285981757        0.30435423181386
H            1.35402278889567       -0.04792404834369        3.66599509014466
H            3.23699140163032        0.10794494032627        5.23582293688358
H            5.54676542887466       -0.22761869152425        4.43443468050089
H            5.95605026533244       -0.74679520068360        2.05711471726519
H            4.07317021789311       -0.89854102666810        0.48296182324664
H            2.79431561135744        1.61742808358668       -0.34632501316720
H            3.64213545774264        1.95662988249852       -2.63850992562762
H            3.26082512525260        0.24807969191817       -4.36706969276870
H            2.04358129344008       -1.82455238029919       -3.81768017155577
H            1.19970850889522       -2.19580830749790       -1.49169257691947
H           -3.63538921271388        0.02878023277737       -2.87816279957621
H           -4.53304713650785       -0.18107375441259       -1.36379851442291
H           -4.62367237999833       -1.41600211017965       -2.62552037010248
H           -2.66748901270010       -3.07112409954937       -2.92127490041761
H           -1.69032524172558       -1.66689534617485       -3.39845776639260
H           -1.14130727045215       -2.72333783192040       -2.07198236959026
H           -3.51554999947240       -1.56491663626053        0.46912076341052
H           -3.72532974369404       -3.02425789370889       -0.51457829418393
H           -2.10434272681442       -2.63119227812102        0.11547514655600
