43
 energy: -67.949440858173 gnorm: 0.000910473333 xtb: 6.6.1 (8d0f1dd)
C           -0.28871826291054       -3.73176532352067       -1.73092891068361
O           -0.08819173531080       -2.59039418157367       -0.93847229064837
C           -1.12544659273558       -1.73795933882358       -0.73291148923541
C           -2.37172113282768       -1.92327616231683       -1.28291262877218
C           -3.42173742737475       -1.02395779662041       -1.03871690922120
C           -4.76740223893724       -1.29914386473317       -1.63793229738168
C           -3.19166926523631        0.07394185918038       -0.25733309922675
C           -1.92435946647322        0.32619056888827        0.31179884058513
C           -1.71914225006688        1.48607495279839        1.11156473575141
B           -2.81236139523159        2.62726186433121        1.30781170644230
O           -3.07702529348470        3.14720388791174        2.53038263837546
O           -3.48512593468469        3.19250173095061        0.27635924497447
C           -0.48713414737435        1.64854063020623        1.70187754734948
C            0.55714284597109        0.74216704674462        1.51638264805113
C            0.38951665535707       -0.37108055506037        0.72305085574654
O            1.36291517378989       -1.28926005401334        0.50048461770903
C            2.63119730410289       -1.10646502702851        1.08399056464629
C            3.39664493738959        0.07897333634259        0.54509529207525
C            3.14496168406111        0.55213773175266       -0.73524327376436
C            3.85081754316790        1.63372748308931       -1.23076402622980
C            4.82094444095616        2.24510876010685       -0.45549210650228
C            5.08255115779675        1.77142969559431        0.81913189495291
C            4.37119935995417        0.69546802355662        1.31894296994046
C           -0.87124702120898       -0.60368744388392        0.09827713030464
H           -1.05562643771139       -4.39005311926667       -1.30884552385204
H            0.66732087420310       -4.25336316517847       -1.73656175927170
H           -0.56171403874340       -3.46991078527103       -2.75907286733052
H           -2.57528771947056       -2.77628603228449       -1.91086053495469
H           -5.18465551202325       -2.21550927482946       -1.22134961788338
H           -4.68523561484498       -1.43189703142675       -2.71603921443137
H           -5.45634468589761       -0.48313833137146       -1.43683556269340
H           -3.99795820806569        0.75832150580529       -0.04237757963634
H           -2.59339069961807        2.75059726480112        3.25259149078769
H           -3.27514756778304        2.84204177751337       -0.58724271844913
H           -0.30086690825405        2.52036257902196        2.31547367487217
H            1.50300995864528        0.94467139391254        1.99214515395264
H            3.17150004470295       -2.02814097729815        0.83553512844154
H            2.55322685133393       -1.04482225586233        2.17918392729368
H            2.38877520242770        0.07015145743809       -1.33712506371020
H            3.64316370850609        1.99892200932002       -2.22577046381463
H            5.37193653352646        3.08944541668654       -0.84249886147842
H            5.83885660923924        2.24426727219719        1.42828189337753
H            4.57182667113682        0.33060347221279        2.31692584354143
